Circuit: * D:\Users\gizmo\Documents\Develop\TS_OD\spice\proco-rat_2.asc

Limiting fall time of source v1 to 1.95156e-019
Direct Newton iteration for .op point succeeded.
.step rdrive=1000
.step rdrive=11000
.step rdrive=21000
.step rdrive=31000
.step rdrive=41000
.step rdrive=51000
.step rdrive=61000
.step rdrive=71000
.step rdrive=81000
.step rdrive=91000
.step rdrive=100000

Date: Mon May 15 20:09:41 2017
Total elapsed time: 3.152 seconds.

tnom = 27
temp = 27
method = modified trap
totiter = 39493
traniter = 39488
tranpoints = 12584
accept = 8922
rejected = 3662
matrix size = 17
fillins = 2
solver = Normal
Matrix Compiler1: 700 ƒoƒCƒg object code size  0.3/0.1/[0.0]
Matrix Compiler2: off  [0.1]/0.2/0.1


